**$ENCRYPTED_LIB
**$INTERFACE
*$
* LM5156-Q1
*****************************************************************************
* (C) Copyright 2019 Texas Instruments Incorporated. All rights reserved.                                            
*****************************************************************************
** This model is designed as an aid for customers of Texas Instruments.
** TI and its licensors and suppliers make no warranties, either expressed
** or implied, with respect to this model, including the warranties of 
** merchantability or fitness for a particular purpose.  The model is
** provided solely on an "as is" basis.  The entire risk as to its quality
** and performance is with the customer
*****************************************************************************
*
* This model is subject to change without notice. Texas Instruments
* Incorporated is not responsible for updating this model.
*
*****************************************************************************
*
** Released by: Texas Instruments Inc.
* Part: LM5156-Q1
* Date: 09DEC2019
* Model Type: TRANSIENT
* Simulator: PSPICE
* Simulator Version: 16.2.0.p001
* EVM Order Number: NA
* EVM Users Guide: NA
* Datasheet: SNVSBI7-JULY 2019
* Topologies Supported: Boost, Flyback, SEPIC
*
* Model Version: Final 1.00
*
*****************************************************************************
*
* Updates:
*
* Final 1.00
* Release to Web.
*
*****************************************************************************
*
* Model Usage Notes:
* The subcircuits are used by the components present in LM5155-Q1 EVM schematic
*
*****************************************************************************
.MODEL PMEG060V100EPD D 
$CDNENCSTART
eee8c5c7a2bc4b01f045f303678664e7916da0bae22e8cb0bba041dd67c69ce448ea70148a9ac1670c8926c1ac5057c8ccfcd77bf87ca9dc109f75d1180b3ffb
c6d73252edd0ce7a47ebccea066b33f8a262f2beadd5de8048b6967e37026bf4c5e5d9cd5daf9415dc24cae2a19bd28a698dcff73aef1fed71b98d88c506c37d
$CDNENCFINISH
*$
.MODEL PMEG045V100EPDAZ D 
$CDNENCSTART
eee8c5c7a2bc4b01f045f303678664e7916da0bae22e8cb0bba041dd67c69ce448ea70148a9ac1670c8926c1ac5057c8ccfcd77bf87ca9dc109f75d1180b3ffb
c6d73252edd0ce7a47ebccea066b33f8a262f2beadd5de8048b6967e37026bf47ecfbfe77d13ec5faa3f510b5d28f30f366651ebd62b7037838f21ad5672ffce
$CDNENCFINISH
*$
.SUBCKT POWERMOS Drain Gate Source PARAMS: RDSON=5.7m Ciss=930p Crss=14p Coss=210p VSP=1.6 RG=2
$CDNENCSTART
eee8c5c7a2bc4b01f045f303678664e7916da0bae22e8cb0bba041dd67c69ce448ea70148a9ac1670c8926c1ac5057c8ccfcd77bf87ca9dc109f75d1180b3ffb
e0bee0f3fadd6724120f9a1ed3fdce6ad09d44cc096bd746c6ccca472a71758a903a99ed5cc462eadc24cae2a19bd28a698dcff73aef1fed71b98d88c506c37d
93d3808648446fd710c3510df4b5a58286a499a5851f831fe847dda77d5f94437725e9fafd9e78b0f529ff45063c467675a54aed64b95f98254804ecd6fe229e
b90e0c5fe970b387efa753fca24015efd086532c5deb9a2534d338c78563597ec55c8187f39b70be69a5612f9b889a6984eb14f98506e6d106b20a87ddd56083
9afa1f10a7f457ea953071710dd780de4acff6633d1dec74e71f71e1875841717725e9fafd9e78b0f529ff45063c467675a54aed64b95f98254804ecd6fe229e
717cdf892ff6b6ffefa753fca24015ef77685c4a90c032a4bd0e42cc8c987b23903a99ed5cc462eadc24cae2a19bd28a698dcff73aef1fed71b98d88c506c37d
d8f5a2ccd87b60ee120f9a1ed3fdce6a2676bf3f07447ccfa6a2ec6f2dc0bc3b5068d62534d557186512ce11e58b0fce81d7b0f79c41a6523dcf1930d1567986
ddf70eae3b5929056ec13594dccec84ad3d8627cbee32ff46bf55428c35ad9f8c7d867531cad62db0b5b191fb0dfc19ead29e395acea3d2ff31b6a6966a4bd2e
aa43ff73c98fcc68fa923a1537eadefdb8844eb1a68310b84cce4fc09d6c081a0d1705138648ae6af956f1a88c0a6669b3d95c078d394a853140e7c54b15c41b
6f186e75fe2741d96d3f313208a3ab11c6e4a3e7a9df50e72522867de054172143500c0f241b33f4dc24cae2a19bd28a698dcff73aef1fed71b98d88c506c37d
1e7e75f62a07f7b1bbcb463bf6330e44b242aa309ceed850b469a8d685c038373e74721d4357bd91ae9d3e9023b3b0e28277fd894ea733d81b8d39eebc1c1a9c
4026ecc45716a6732c34dc911361c236dc24cae2a19bd28a698dcff73aef1fed030dfe679e7f42d98921ec32eebd54b418a3528f4ba0801bc7df8e39fecbf7cf
d6f9f76e50b87b51109b40c4525dee439fd75d151a82d23a5a8f7bc1e71198112923cc14e52c903236806a8e381bf9a07725e9fafd9e78b08cd2e439ca280904
$CDNENCFINISH
.ends POWERMOS
*$
.SUBCKT CESR IN OUT
+ PARAMS:  C=100u ESR=0.01 X=1 IC=0
$CDNENCSTART
eee8c5c7a2bc4b01f045f303678664e7916da0bae22e8cb0bba041dd67c69ce448ea70148a9ac1670c8926c1ac5057c8ccfcd77bf87ca9dc109f75d1180b3ffb
e1672f4adc2977086d52cafd2bff85722d69afd784fc88825068d62534d557186512ce11e58b0fce81d7b0f79c41a652377d88c26f73ac58e5934521c6dffa48
103083d7a6d047eb2989a19c26e45d932985cbba7e27b38d69a5612f9b889a6984eb14f98506e6d121edf9fd21e6fbe40631fd8e26cf5c8098d36692df6a0f47
$CDNENCFINISH
.ENDS CESR
*$
.SUBCKT LDCR IN OUT
+ PARAMS:  L=1u DCR=0.01 IC=0
$CDNENCSTART
eee8c5c7a2bc4b01f045f303678664e7916da0bae22e8cb0bba041dd67c69ce448ea70148a9ac1670c8926c1ac5057c8ccfcd77bf87ca9dc109f75d1180b3ffb
329fb98622dd3c0289053824691caefc4dc81c04b9e31f32dc24cae2a19bd28a698dcff73aef1fed030dfe679e7f42d98921ec32eebd54b4f5ea5fe402f66672
eca920dce3ff5fa4e99db6fbe6c19b3e6bf55428c35ad9f8c7d867531cad62db0b5b191fb0dfc19ead29e395acea3d2f12106aa64b2bb2866d291e46772a33b9
$CDNENCFINISH
.ENDS LDCR
*$
.SUBCKT 750317933 1 2 3 4 5 6
$CDNENCSTART
eee8c5c7a2bc4b01f045f303678664e7916da0bae22e8cb0bba041dd67c69ce448ea70148a9ac1670c8926c1ac5057c8ccfcd77bf87ca9dc109f75d1180b3ffb
d09dd2ee1fa105b65f22220e1ccdb7b1aa3f510b5d28f30f366651ebd62b7037ea23b9b9f2b376576a736f7a162b5e365baedfd5e9b3dd7212b4c255b6c14ebb
22265e0ee694df3a3d58e87b1263d7fbda2aec552b598ba269a5612f9b889a6984eb14f98506e6d121edf9fd21e6fbe40631fd8e26cf5c8098d36692df6a0f47
b6215c1153ff7c03edd20d6083c6a7c7699c1945c789c76137a1be8175c6718e83a3eb5b99d7dc0c5c2f480a6608713d003cfc3b7865584e971dbe2116561540
7e52e95737325caac2949fa07e947ac06bf55428c35ad9f8c7d867531cad62db0b5b191fb0dfc19ead29e395acea3d2f12106aa64b2bb2866d291e46772a33b9
9f642c35060efe80ca55cfc1251b2b176bf55428c35ad9f8c7d867531cad62db0b5b191fb0dfc19ead29e395acea3d2f12106aa64b2bb2866d291e46772a33b9
882153517fee647a3f2c31bd773f904cf38e479aa4837e58201394b6a7d5b8e48b01436309a92b18efc15553ac0504f2c97418e67e578ef156ebbb24956f445a
5f2c3bbddb8c981ef3bdb6ce33bf5daec55c8187f39b70be69a5612f9b889a6984eb14f98506e6d121edf9fd21e6fbe40631fd8e26cf5c8098d36692df6a0f47
b77a9c0f45056b0bf8c8096848d94f7daad0cae5ebf3019a7725e9fafd9e78b0f529ff45063c467675a54aed64b95f98c1b5e4bbaee15a617b08209c82897332
9235bb6b8251446a002058826b21160bf467148f06ca8e4369a5612f9b889a6984eb14f98506e6d121edf9fd21e6fbe40631fd8e26cf5c8098d36692df6a0f47
abe234f65abc8512ff8faa46d4f07843f38e479aa4837e58201394b6a7d5b8e48b01436309a92b18efc15553ac0504f2c97418e67e578ef156ebbb24956f445a
69eafa68190c63ffc9a1891db9f49b136bf55428c35ad9f8c7d867531cad62db0b5b191fb0dfc19ead29e395acea3d2f12106aa64b2bb2866d291e46772a33b9
$CDNENCFINISH
.ENDS 750317933
*$
.SUBCKT LMV431A A K Fdbk
$CDNENCSTART
eee8c5c7a2bc4b01f045f303678664e7916da0bae22e8cb0bba041dd67c69ce448ea70148a9ac1670c8926c1ac5057c8ccfcd77bf87ca9dc109f75d1180b3ffb
0dea85bdd2f6170519fbccccf151cc3db6ad70eadbc54a024cce35eb73c7ec3a69a5612f9b889a6984eb14f98506e6d121edf9fd21e6fbe4720aef55bdbfa5f4
9445347659ec35d38acd2b5342a51814ecd15350991019a301b8ebdad01ecbc94fa2cb5fdab954196bf55428c35ad9f8c7d867531cad62db91ccf6cc2525659a
7cb86961b1d9e0f4872aa1e271d458dabb33e92a773f00f5e4ebb54ec83c6874999885ffe318eff0dc24cae2a19bd28a698dcff73aef1fed71b98d88c506c37d
93d3808648446fd79262cccca64f3f9a2af33e6c0e8632a7bf1ee911780421dd69a5612f9b889a6984eb14f98506e6d121edf9fd21e6fbe4720aef55bdbfa5f4
9afa1f10a7f457ea9262cccca64f3f9a6f31fe0532c27bd1bf1ee911780421dd69a5612f9b889a6984eb14f98506e6d121edf9fd21e6fbe4720aef55bdbfa5f4
b90e0c5fe970b3879262cccca64f3f9ad58a699c178a721228949941def39b84699c1945c789c76137a1be8175c6718e83a3eb5b99d7dc0ceaa795df6f7b6967
717cdf892ff6b6ff9262cccca64f3f9aa22a4fa918bffc4edf80177c70353e17644126c9831a96bd7725e9fafd9e78b0f529ff45063c467613578c3808d11744
d674c3790d07122b9262cccca64f3f9a3c9d55afd264b60729d080815a0b430c825e76b3946756dedc24cae2a19bd28a698dcff73aef1fed71b98d88c506c37d
f679d7b40f0cc2455c0c8597355750cfc312c1f1de89c8845aaeb6ac2ce8b16f6864049776ae7c52699c1945c789c76137a1be8175c6718ecdf80d181422bd4f
30121bf0e4b6f8809262cccca64f3f9abf91ee93d5293d6981a05a373f27b5ef6bf55428c35ad9f8c7d867531cad62db0b5b191fb0dfc19e09a5b102f095f86e
9f3fc8182ac6b7b1dec80522503aa475027662553ca9fe20d85fc4f5b44e560a66caa9fac4006519abfd2ed4ae284971aa3f510b5d28f30fc4850015cce44355
1b074b8e674ef3db5c0c8597355750cf980356479de2cada024bc38e846fe588512ae010d72dc4f969a5612f9b889a6984eb14f98506e6d106b20a87ddd56083
3bdfb3bcf8540f5719fbccccf151cc3d182723da1c057b69f79ed346fe02bf5d7725e9fafd9e78b0f529ff45063c467675a54aed64b95f98254804ecd6fe229e
$CDNENCFINISH
.ENDS LMV431A
*$
.SUBCKT DC_1mV_1A_1V_1nA A C
$CDNENCSTART
eee8c5c7a2bc4b01f045f303678664e7916da0bae22e8cb0bba041dd67c69ce448ea70148a9ac1670c8926c1ac5057c8ccfcd77bf87ca9dc109f75d1180b3ffb
9a46c79d7c3132bd70fab9fd747b5260631c96dfb01993e949f0001ae86fc66bdd36205ec715a450e03531ceb3d43151fe1039b2586ddf2b1dda3845939d8d6f
b1d50658e2236fd2aa3f510b5d28f30f366651ebd62b7037ea23b9b9f2b376576a736f7a162b5e365baedfd5e9b3dd72f8b894f377d026b085225606e23c5e25
$CDNENCFINISH
.ends DC_1mV_1A_1V_1nA 
*$
.SUBCKT CIN 1 2 PARAMS: C = 0.33u ESR = 0.542 IC = 0
$CDNENCSTART
eee8c5c7a2bc4b01f045f303678664e7916da0bae22e8cb0bba041dd67c69ce448ea70148a9ac1670c8926c1ac5057c8ccfcd77bf87ca9dc109f75d1180b3ffb
54a9e4812088dfa9f511513cb93bb3be2ecb4b131d2d1190aa3f510b5d28f30f366651ebd62b7037ea23b9b9f2b376576a736f7a162b5e36445ce3112dabc5fb
b13be4ddc2c2880fa20e2b16ca419d7ef38e479aa4837e58201394b6a7d5b8e48b01436309a92b18efc15553ac0504f2c97418e67e578ef156ebbb24956f445a
$CDNENCFINISH
.ENDS CIN
*$
.SUBCKT PS2811 A K E C
$CDNENCSTART
eee8c5c7a2bc4b01f045f303678664e7916da0bae22e8cb0bba041dd67c69ce448ea70148a9ac1670c8926c1ac5057c8ccfcd77bf87ca9dc109f75d1180b3ffb
9e1ee8d1f39ceaff53592ad9b6fe54ea69a5612f9b889a6984eb14f98506e6d121edf9fd21e6fbe40631fd8e26cf5c8083838c18b02e727c3cd2b1ddf8dbf3a8
52dda4171c16dd36d15b4ddb3bfc270aaa3f510b5d28f30f366651ebd62b7037ea23b9b9f2b376576a736f7a162b5e365baedfd5e9b3dd7212b4c255b6c14ebb
04bae8c825c66f3d66949f8906cb451136806a8e381bf9a07725e9fafd9e78b0f529ff45063c467675a54aed64b95f98c1b5e4bbaee15a617b08209c82897332
30ba44428a815b0d81c4b7035e3b7ba65068d62534d557186512ce11e58b0fce81d7b0f79c41a652377d88c26f73ac5813864deefbf4185a0e78abf86cecf415
57b4e0d7278ef207950dceafd8ee2cfaaa3f510b5d28f30f366651ebd62b7037ea23b9b9f2b376576a736f7a162b5e365baedfd5e9b3dd7212b4c255b6c14ebb
5ae3fa035e9147aa1f184122ee6e5b03f38e479aa4837e58201394b6a7d5b8e48b01436309a92b18efc15553ac0504f2c97418e67e578ef156ebbb24956f445a
390de136964358bd03c9c18a40018922699c1945c789c76137a1be8175c6718e83a3eb5b99d7dc0c5c2f480a6608713d003cfc3b7865584e971dbe2116561540
115bdd6b6af42a6e26584ca283add2c489480c0c636db20483990c8da2b9ae5ea5cf63326c64e35c40e950866034211ccb2083a6008388c43140e7c54b15c41b
0578f4c2c7ad73486baa0d210e535ad74c131d9ac9790f1e926a94a340a0c14bccd7fb1f715b31e92a4932283568954c327fe7557705ec8aa2508631671a8aff
deebefdad5ac8f6fdc24cae2a19bd28a698dcff73aef1fed030dfe679e7f42d98921ec32eebd54b418a3528f4ba0801bb2016cb814ab40b0f6ee6e7a621b7dc9
fe746074ff46519458dbfc384f11eecc5d9a7da96a47ab952a6e9512eeb53559ab505d2c5fae240abdc95ec995c40984dc24cae2a19bd28ae73384ae077dd3bb
7a6b459fd22987cf89480c0c636db204f70f69226842ca9f70d677500758f34c591f46e3975b3f1fe11b2c09a325a4d04d45ae5c1e0f4a18e4f5554fd6a88efd
bbdea5a4550989c6dc24cae2a19bd28a698dcff73aef1fed030dfe679e7f42d98921ec32eebd54b418a3528f4ba0801bb2016cb814ab40b0f6ee6e7a621b7dc9
4618ed7e40fbd46650393b5bcd0a133fb8492efe554dc1e3aa3f510b5d28f30f366651ebd62b7037ea23b9b9f2b376576a736f7a162b5e36445ce3112dabc5fb
b19bfc1ecf7d576edfc2d148610314546727088c6cb61c217725e9fafd9e78b0f529ff45063c467675a54aed64b95f98c1b5e4bbaee15a617b08209c82897332
44a23db9cc6eeacc8a4792d6e58b8fe1c0566ece00ada0d078c576f5a6d2374360c5fcc943e039a3545e5d2a058244f5699c1945c789c761f2d426912d3bc2ba
2f7b9e0ab23edb55a8ba37d30663ec9bd8e0c98c7a73028ee5d5c6a1b5a1b63a69a5612f9b889a6984eb14f98506e6d121edf9fd21e6fbe4720aef55bdbfa5f4
0697746efb67a3a3ce40a551e1ee4ac532d45c9d902cece778c9ebbe25258da38e97e2dca67bd6105b18620c14eedb544fb402baca259bf0b832ca0cb0bfd819
c18a9fa1fc573d89a4f5cd9959604a300d8f978b8bad2c96a96f732990df0b2d27e10affc24cfb395068d62534d557186512ce11e58b0fce35069b4e8fa025c8
$CDNENCFINISH
.ends PS2811
*$
.subckt  DD_1280_7448700015_1u5  1  2  3  4  PARAMS:
+  Cww=7.693p
+  Rp1=3222.084477671
+  Cp1=4.951310638861p
+  Lp1=1.27122123005u
+  Rp2=3222.084477671
+  Cp2=4.951310638861p
+  Lp2=1.27122123005u
+  RDC1=0.014750000089407
+  RDC2=0.014750000089407
+  K=0.959440559585571
$CDNENCSTART
eee8c5c7a2bc4b01f045f303678664e7916da0bae22e8cb0bba041dd67c69ce448ea70148a9ac1670c8926c1ac5057c8ccfcd77bf87ca9dc109f75d1180b3ffb
b784a0785030a24ec3a21ad39af368abe126b029b04c4d135068d62534d557186512ce11e58b0fce81d7b0f79c41a652377d88c26f73ac58e5934521c6dffa48
aa0abfee2b9baf67ee02ecddc1c79a1109f7de580312a26069a5612f9b889a6984eb14f98506e6d121edf9fd21e6fbe40631fd8e26cf5c8098d36692df6a0f47
a3431c5c5610ab15b10e2cb0adbccd37e126b029b04c4d135068d62534d557186512ce11e58b0fce81d7b0f79c41a652377d88c26f73ac58e5934521c6dffa48
a123afbb993e18f65fd7e4f13bd94b9f0bdb92e48fffc5f2dc24cae2a19bd28a698dcff73aef1fed030dfe679e7f42d98921ec32eebd54b4f5ea5fe402f66672
8cd8edc8689f5c8904a1e7f2756e53e93361a061378b4374e71f71e1875841717725e9fafd9e78b0f529ff45063c467675a54aed64b95f98254804ecd6fe229e
822692ea4dfc4c3ccc8113fb88cbf6580bdb92e48fffc5f2dc24cae2a19bd28a698dcff73aef1fed030dfe679e7f42d98921ec32eebd54b4f5ea5fe402f66672
249bd45f0b80be65ad0d58e6fa045f001841a804c1fbd0696bf55428c35ad9f8c7d867531cad62db0b5b191fb0dfc19ead29e395acea3d2ff31b6a6966a4bd2e
57231aca842e83eb35e9feec3de03fd69c32ac25458620be6bf55428c35ad9f8c7d867531cad62db0b5b191fb0dfc19ead29e395acea3d2ff31b6a6966a4bd2e
ebfdf43fff92474fc3a21ad39af368abad0dbf52c16ea1fedc24cae2a19bd28a698dcff73aef1fed030dfe679e7f42d98921ec32eebd54b4f5ea5fe402f66672
3c780ee64c177e339953cb5c2266b2dfad0dbf52c16ea1fedc24cae2a19bd28a698dcff73aef1fed030dfe679e7f42d98921ec32eebd54b4f5ea5fe402f66672
378b2eb93ffb2c8d9d56aa3d2c593265abe5d3a860a013d1e71f71e1875841717725e9fafd9e78b0f529ff45063c467675a54aed64b95f98254804ecd6fe229e
fc0731e161dd55f77104ae90d59c4cb47fe6c23fa65b4735f3dd71ad90ad6ed469a5612f9b889a6984eb14f98506e6d121edf9fd21e6fbe4720aef55bdbfa5f4
$CDNENCFINISH
.ends DD_1280_7448700015_1u5
*$

